Circuit: * C:\Users\henry\Documents\GitHub\BEE331_Lab_2\Spice\2_1_1.asc


Date: Mon Jul 29 16:49:46 2024
Total elapsed time: 0.031 seconds.

tnom = 27
temp = 27
method = trap
totiter = 35
traniter = 0
tranpoints = 0
accept = 0
rejected = 0
matrix size = 6
fillins = 0
solver = Normal
Avg thread counts: 16.0/0.0/16.0/16.0
Matrix Compiler1: 164 bytes object code size
Matrix Compiler2: 380 bytes object code size
