Circuit: * C:\Users\henry\Documents\GitHub\BEE331_Lab_2\Spice\Draft1.asc

Direct Newton iteration for .op point succeeded.

Date: Mon Jul 29 20:10:30 2024
Total elapsed time: 0.111 seconds.

tnom = 27
temp = 27
method = modified trap
totiter = 2096
traniter = 2092
tranpoints = 1047
accept = 1047
rejected = 0
matrix size = 7
fillins = 0
solver = Normal
Avg thread counts: 3.8/6.6/6.6/3.8
Matrix Compiler1: 294 bytes object code size  0.2/0.2/[0.1]
Matrix Compiler2: 487 bytes object code size  0.1/0.2/[0.1]

